/*--------------------------------*- C++ -*----------------------------------*\
| =========                 |                                                 |
| \\      /  F ield         | OpenFOAM: The Open Source CFD Toolbox           |
|  \\    /   O peration     | Version:  v1712                                 |
|   \\  /    A nd           | Web:      www.OpenFOAM.com                      |
|    \\/     M anipulation  |                                                 |
\*---------------------------------------------------------------------------*/
FoamFile
{
    version     2.0;
    format      ascii;
    class       polyBoundaryMesh;
    location    "constant/polyMesh";
    object      boundary;
}
// * * * * * * * * * * * * * * * * * * * * * * * * * * * * * * * * * * * * * //

5
(
    oversetPatch1
    {
        type            overset;
        nFaces          262;
        startFace       4308;
        faces           ( ( 0 3 2 1 ) ( 2 6 5 1 ) ( 0 4 7 3 ) ( 4 5 6 7 ) );
    }
    oversetPatch2
    {
        type            overset;
        nFaces          262;
        startFace       4570;
        faces           ( ( 8 11 10 9 ) ( 10 14 13 9 ) ( 8 12 15 11 ) ( 12 13 14 15 ) );
    }
    frontAndBack1
    {
        type            empty;
        inGroups        1(empty);
        nFaces          2404;
        startFace       4832;
    }
    frontAndBack2
    {
        type            empty;
        inGroups        1(empty);
        nFaces          2404;
        startFace       7236;
    }
    movingObject
    {
        type            wall;
        inGroups        1(wall);
        nFaces          476;
        startFace       9640;
    }
)

// ************************************************************************* //
