/*--------------------------------*- C++ -*----------------------------------*\
| =========                 |                                                 |
| \\      /  F ield         | OpenFOAM: The Open Source CFD Toolbox           |
|  \\    /   O peration     | Version:  v1812                                 |
|   \\  /    A nd           | Web:      www.OpenFOAM.com                      |
|    \\/     M anipulation  |                                                 |
\*---------------------------------------------------------------------------*/
FoamFile
{
    version     2.0;
    format      ascii;
    class       dictionary;
    object      blockMeshDict;
}
// * * * * * * * * * * * * * * * * * * * * * * * * * * * * * * * * * * * * * //

scale   1;

vertices
(
    (0.955 0.00 -0.60)
    (1.032 0.00 -0.60)
    (1.032 0.58 -0.60)
    (0.955 0.58 -0.60)
    (0.955 0.00  0.24)
    (1.032 0.00  0.24)
    (1.032 0.58  0.24)
    (0.955 0.58  0.24)
    (1.945 0.00 -0.60)
    (2.022 0.00 -0.60)
    (2.022 0.58 -0.60)
    (1.945 0.58 -0.60)
    (1.945 0.00  0.24)
    (2.022 0.00  0.24)
    (2.022 0.58  0.24)
    (1.945 0.58  0.24)
);

blocks
(
    hex (0 1  2  3  4  5  6  7) movingZone1 (11 1 120) simpleGrading (1 1 1)
    hex (8 9 10 11 12 13 14 15) movingZone2 (11 1 120) simpleGrading (1 1 1)
);

edges
(
);

boundary
(
    oversetPatch1
    {
        type overset;
        faces
        (
            (0 3 2 1)
            (2 6 5 1)
            (0 4 7 3)
            (4 5 6 7)
        );
    }
    oversetPatch2
    {
        type overset;
        faces
        (
            ( 8 11 10  9)
            (10 14 13  9)
            ( 8 12 15 11)
            (12 13 14 15)
        );
    }

    frontAndBack1
    {
        type empty;
        faces
        (
            (1 5 4 0)
            (3 7 6 2)
        );
    }
    frontAndBack2
    {
        type empty;
        faces
        (
            ( 9 13 12  8)
            (11 15 14 10)
        );
    }

    // to be filled by subsetMesh
    movingObject
    {
        type wall;
        faces ();
    }

);

// ************************************************************************* //
